// Definições de carga

// Curva de carga industrial
New Loadshape.1 Npts=96 
 ~ Mult=(0.131409, 0.133167, 0.131995, 0.130823, 0.131409, 0.131995, 0.130823, 0.131409, 0.133167, 0.132581, 0.133167, 0.131995, 0.131409, 0.132581, 0.132581, 0.131409, 0.132581, 0.133167, 0.131995, 0.130823, 0.131409, 0.133167, 0.12965, 0.131409, 0.127891, 0.131409, 0.0921327, 0.0418163, 0.00859775, 0.00293105, 0.00390807, 0.0103564, 0.357784, 0.940379, 1.21883, 1.1094, 1.6067, 1.92472, 2.08202, 3.01302, 3.90865, 4.35974, 3.70641, 3.72644, 3.57461, 3.6047, 3.48375, 3.35918, 2.85836, 3.00745, 2.65182, 2.45251, 2.436, 2.2061, 1.93342, 1.94436, 2.25417, 2.13078, 2.06287, 2.11798, 2.05809, 1.90782, 1.76107, 1.49122, 1.27891, 0.985126, 1.11497, 1.36069, 1.20417, 1.20701, 1.03466, 1.09133, 0.986201, 0.783665, 0.686159, 0.644049, 0.396766, 0.177231, 0.127208, 0.120759, 0.121932, 0.121932, 0.121345, 0.121345, 0.121932, 0.123104, 0.121345, 0.123104, 0.122518, 0.122518, 0.122518, 0.124277, 0.124277, 0.124277, 0.124863, 0.124277) 
 ~ Hour=(0.0, 0.25, 0.5, 0.75, 1.0, 1.25, 1.5, 1.75, 2.0, 2.25, 2.5, 2.75, 3.0, 3.25, 3.5, 3.75, 4.0, 4.25, 4.5, 4.75, 5.0, 5.25, 5.5, 5.75, 6.0, 6.25, 6.5, 6.75, 7.0, 7.25, 7.5, 7.75, 8.0, 8.25, 8.5, 8.75, 9.0, 9.25, 9.5, 9.75, 10.0, 10.25, 10.5, 10.75, 11.0, 11.25, 11.5, 11.75, 12.0, 12.25, 12.5, 12.75, 13.0, 13.25, 13.5, 13.75, 14.0, 14.25, 14.5, 14.75, 15.0, 15.25, 15.5, 15.75, 16.0, 16.25, 16.5, 16.75, 17.0, 17.25, 17.5, 17.75, 18.0, 18.25, 18.5, 18.75, 19.0, 19.25, 19.5, 19.75, 20.0, 20.25, 20.5, 20.75, 21.0, 21.25, 21.5, 21.75, 22.0, 22.25, 22.5, 22.75, 23.0, 23.25, 23.5, 23.75)

// Curva de carga residencial
New Loadshape.2 Npts=96 
 ~ Mult=(0.815756, 0.758069, 0.800909, 0.734994, 0.726672, 0.747288, 0.755137, 0.670308, 0.787669, 0.771592, 0.746626, 0.70615, 0.807528, 0.805637, 0.773105, 0.740573, 0.800436, 0.846964, 0.714756, 0.735561, 0.77216, 0.759771, 0.715134, 0.647328, 0.723173, 1.15554, 1.80978, 1.70272, 1.3026, 0.906448, 0.801003, 0.698017, 0.808096, 0.947018, 0.896897, 0.785399, 0.709176, 0.632291, 0.657541, 0.626239, 0.914676, 0.813486, 0.660662, 0.874767, 0.657258, 0.730549, 0.769984, 0.869377, 0.708703, 0.628887, 0.660946, 0.590302, 0.685818, 0.998843, 0.85992, 0.861717, 0.825213, 1.09379, 0.895667, 0.787385, 0.893398, 0.956665, 0.724969, 0.760055, 0.926402, 1.28047, 1.10183, 1.23602, 1.06097, 1.04499, 1.104, 1.22023, 2.03353, 1.77261, 1.54262, 1.53931, 1.66754, 1.51595, 1.42403, 1.4419, 1.48304, 1.52824, 1.54082, 1.93186, 1.35802, 1.63804, 1.63435, 1.31622, 1.38705, 1.32794, 1.26184, 1.18855, 1.09578, 1.00584, 0.883279, 0.981631) 
 ~ Hour=(0.0, 0.25, 0.5, 0.75, 1.0, 1.25, 1.5, 1.75, 2.0, 2.25, 2.5, 2.75, 3.0, 3.25, 3.5, 3.75, 4.0, 4.25, 4.5, 4.75, 5.0, 5.25, 5.5, 5.75, 6.0, 6.25, 6.5, 6.75, 7.0, 7.25, 7.5, 7.75, 8.0, 8.25, 8.5, 8.75, 9.0, 9.25, 9.5, 9.75, 10.0, 10.25, 10.5, 10.75, 11.0, 11.25, 11.5, 11.75, 12.0, 12.25, 12.5, 12.75, 13.0, 13.25, 13.5, 13.75, 14.0, 14.25, 14.5, 14.75, 15.0, 15.25, 15.5, 15.75, 16.0, 16.25, 16.5, 16.75, 17.0, 17.25, 17.5, 17.75, 18.0, 18.25, 18.5, 18.75, 19.0, 19.25, 19.5, 19.75, 20.0, 20.25, 20.5, 20.75, 21.0, 21.25, 21.5, 21.75, 22.0, 22.25, 22.5, 22.75, 23.0, 23.25, 23.5, 23.75)