// Definição do circuito

New Circuit.IEEE13barras
~ basekv=115 pu=1.0 phases=3 bus=SourceBus
//~ basekv=115 pu=1.0001 phases=3 bus=SourceBus
~ Angle=30
~ MVAsc3=1000000000 MVAsc1=1000000000
//~ MVAsc3=20000 MVAsc1=21000
AddBusMarker Bus=SourceBus Code=36 color=Red size=2